Version 4.1
SHEET 1 952 680
WIRE 80 -304 -80 -304
WIRE 288 -304 80 -304
WIRE 448 -304 288 -304
WIRE 720 -304 448 -304
WIRE 448 -272 448 -304
WIRE 512 -272 448 -272
WIRE 288 -256 288 -304
WIRE 288 -256 224 -256
WIRE 288 -224 288 -256
WIRE 448 -224 448 -272
WIRE -80 -208 -80 -304
WIRE 224 -176 224 -256
WIRE 288 -176 224 -176
WIRE 512 -176 512 -272
WIRE 512 -176 448 -176
WIRE 720 -176 720 -304
WIRE 800 -176 720 -176
WIRE 720 -160 720 -176
WIRE 368 -144 336 -144
WIRE 400 -144 368 -144
WIRE 800 -112 800 -176
WIRE 800 -112 720 -112
WIRE -80 -80 -80 -128
WIRE 288 -80 288 -128
WIRE 368 -80 368 -144
WIRE 368 -80 288 -80
WIRE 448 -80 448 -128
WIRE 608 -80 448 -80
WIRE 672 -80 608 -80
WIRE 288 32 288 -80
WIRE 448 32 448 -80
WIRE 304 80 288 80
WIRE 448 80 416 80
WIRE 720 80 720 -64
WIRE 896 80 720 80
WIRE 80 96 80 -304
WIRE 208 112 176 112
WIRE 240 112 208 112
WIRE 528 112 496 112
WIRE 544 112 528 112
WIRE 560 112 544 112
WIRE 608 128 608 -80
WIRE 288 144 288 128
WIRE 304 144 304 80
WIRE 304 144 288 144
WIRE 416 144 416 80
WIRE 448 144 448 128
WIRE 448 144 416 144
WIRE 176 160 176 112
WIRE 288 208 288 144
WIRE 352 208 288 208
WIRE 448 208 448 144
WIRE 448 208 352 208
WIRE 528 208 528 112
WIRE 896 224 896 80
WIRE 80 256 80 176
WIRE 352 256 352 208
WIRE 176 272 176 240
WIRE 720 272 720 80
WIRE 80 304 16 304
WIRE 432 304 352 304
WIRE 528 320 528 288
WIRE 768 320 720 320
WIRE 272 336 128 336
WIRE 304 336 272 336
WIRE 384 352 352 352
WIRE 672 352 656 352
WIRE 16 368 16 304
WIRE 96 368 16 368
WIRE 384 368 384 352
WIRE 432 368 432 304
WIRE 432 368 384 368
WIRE 80 384 80 352
WIRE 96 384 96 368
WIRE 96 384 80 384
WIRE 272 384 272 336
WIRE 656 384 656 352
WIRE 656 384 272 384
WIRE 80 400 80 384
WIRE 384 400 384 368
WIRE 384 400 80 400
WIRE 608 400 608 192
WIRE 608 400 384 400
WIRE 720 400 720 368
WIRE 720 400 608 400
WIRE 768 400 768 320
WIRE 768 400 720 400
WIRE 896 400 896 288
WIRE 896 400 768 400
WIRE 384 432 384 400
FLAG 384 432 0
FLAG -80 -80 0
FLAG 544 112 Vi+
FLAG 208 112 Vi-
FLAG 528 320 0
FLAG 176 272 0
SYMBOL current 80 96 R0
SYMATTR InstName I1
SYMATTR Value 10”
SYMBOL nmos4 128 256 M0
SYMATTR InstName M1
SYMATTR Value N_1u
SYMATTR Value2 l=5u w=10u
SYMBOL nmos4 304 256 R0
SYMATTR InstName M2
SYMATTR Value N_1u
SYMATTR Value2 l=5u w=10u m=2
SYMBOL nmos4 496 32 M0
SYMATTR InstName M3
SYMATTR Value N_1u
SYMATTR Value2 l=5u w=25u
SYMBOL nmos4 240 32 R0
SYMATTR InstName M4
SYMATTR Value N_1u
SYMATTR Value2 l=5u w=25u
SYMBOL nmos4 672 272 R0
SYMATTR InstName M5
SYMATTR Value N_1u
SYMATTR Value2 l=5u w=10u
SYMBOL pmos4 400 -224 R0
SYMATTR InstName M6
SYMATTR Value P_1u l=5u w=15u
SYMBOL pmos4 336 -224 M0
SYMATTR InstName M7
SYMATTR Value P_1u l=5u w=15u
SYMBOL pmos4 672 -160 R0
SYMATTR InstName M8
SYMATTR Value P_1u l=5u w=15u
SYMBOL cap 592 128 R0
SYMATTR InstName C1
SYMATTR Value 0p5
SYMBOL cap 880 224 R0
SYMATTR InstName C2
SYMATTR Value 0p5
SYMBOL voltage -80 -224 R0
SYMATTR InstName V1
SYMATTR Value 5
SYMBOL voltage 528 192 R0
WINDOW 3 24 152 Left 2
WINDOW 123 24 124 Left 2
WINDOW 39 0 0 Left 0
SYMATTR InstName V2
SYMATTR Value 1
SYMATTR Value2 AC 1
SYMBOL voltage 176 144 R0
WINDOW 3 24 208 Left 2
WINDOW 123 24 180 Left 2
WINDOW 39 0 0 Left 0
SYMATTR InstName V3
SYMATTR Value 1
TEXT -328 64 Left 2 !.include models.txt
TEXT -336 104 Left 2 !.ac dec 1000 100 100meg
