Version 4.1
SHEET 1 1444 1444
WIRE 16 32 16 -16
WIRE 16 32 -32 32
WIRE 368 32 368 -16
WIRE 416 32 368 32
WIRE -32 80 -32 32
WIRE 16 80 -32 80
WIRE 416 80 416 32
WIRE 416 80 368 80
WIRE 576 96 576 -16
WIRE 624 96 576 96
WIRE 112 112 64 112
WIRE 320 112 112 112
WIRE 576 112 576 96
WIRE 768 112 736 112
WIRE 816 112 768 112
WIRE 960 112 896 112
WIRE 1104 112 1024 112
WIRE 1136 112 1104 112
WIRE -208 160 -208 -16
WIRE 624 160 624 96
WIRE 624 160 576 160
WIRE 16 176 16 128
WIRE 112 176 112 112
WIRE 112 176 16 176
WIRE 368 192 368 128
WIRE 432 192 368 192
WIRE 496 192 432 192
WIRE 528 192 496 192
WIRE 16 272 16 176
WIRE 368 272 368 192
WIRE 1104 304 1104 272
WIRE -384 320 -384 288
WIRE 64 320 16 320
WIRE 368 320 320 320
WIRE 576 336 576 208
WIRE 640 336 576 336
WIRE -48 352 -64 352
WIRE -32 352 -48 352
WIRE 432 352 416 352
WIRE 448 352 432 352
WIRE 576 368 576 336
WIRE 736 368 576 368
WIRE 16 384 16 368
WIRE 64 384 64 320
WIRE 64 384 16 384
WIRE 320 384 320 320
WIRE 368 384 368 368
WIRE 368 384 320 384
WIRE 896 384 896 352
WIRE -48 400 -48 352
WIRE 496 400 496 192
WIRE -208 416 -208 240
WIRE -112 416 -208 416
WIRE -48 416 -48 400
WIRE 16 416 16 384
WIRE 208 416 16 416
WIRE 368 416 368 384
WIRE 368 416 208 416
WIRE 432 416 432 352
WIRE 1104 416 1104 384
WIRE -384 432 -384 400
WIRE 1104 432 1104 416
WIRE -208 464 -208 416
WIRE 208 464 208 416
WIRE 576 464 576 368
WIRE 736 464 736 368
WIRE 896 480 896 464
WIRE -208 512 -240 512
WIRE 256 512 208 512
WIRE 624 512 576 512
WIRE 496 528 496 464
WIRE -112 544 -112 416
WIRE -112 544 -160 544
WIRE 160 544 -112 544
WIRE 528 544 160 544
WIRE 208 576 208 560
WIRE 256 576 256 512
WIRE 256 576 208 576
WIRE 576 576 576 560
WIRE 624 576 624 512
WIRE 624 576 576 576
WIRE -240 592 -240 512
WIRE -208 592 -208 560
WIRE -208 592 -240 592
WIRE -208 608 -208 592
WIRE 496 608 496 560
WIRE 576 608 576 576
WIRE 736 608 736 528
WIRE 208 640 208 576
WIRE -160 896 -176 896
WIRE -304 928 -304 912
WIRE -272 928 -304 928
WIRE -176 928 -176 896
WIRE -176 928 -272 928
WIRE -48 928 -176 928
WIRE 160 928 32 928
WIRE 208 928 208 912
WIRE 208 928 160 928
WIRE -304 944 -304 928
WIRE -176 944 -176 928
WIRE 208 944 208 928
WIRE -176 1040 -176 1024
FLAG 208 640 0
FLAG 448 352 Vi+
FLAG 640 336 Vo
FLAG -384 432 0
FLAG -208 -16 VDD
FLAG 16 -16 VDD
FLAG 368 -16 VDD
FLAG 576 -16 VDD
FLAG 736 608 0
FLAG 576 608 0
FLAG 496 608 0
FLAG -208 608 0
FLAG -384 288 VDD
FLAG -64 352 Vi-
FLAG 896 480 0
FLAG 896 352 Vidc
FLAG -176 1040 0
FLAG -160 896 x2
FLAG -272 928 Vi-
FLAG 160 928 Vo
FLAG 1104 112 Vo
FLAG 768 112 Vodiff
FLAG 432 192 Vodiff
FLAG 432 416 Vin
FLAG 1104 272 Vin
FLAG 1104 416 Vidc
FLAG -48 400 Vo
SYMBOL pmos4 320 32 R0
SYMATTR InstName M1
SYMATTR Value P_1u
SYMATTR Value2 l=5u w=15u
SYMBOL pmos4 64 32 M0
SYMATTR InstName M2
SYMATTR Value P_1u
SYMATTR Value2 l=5u w=15u
SYMBOL nmos4 -32 272 R0
SYMATTR InstName M3
SYMATTR Value N_1u
SYMATTR Value2 l=5u w=25u
SYMBOL nmos4 416 272 M0
SYMATTR InstName M4
SYMATTR Value N_1u
SYMATTR Value2 l=5u w=25u
SYMBOL nmos4 160 464 R0
SYMATTR InstName M5
SYMATTR Value N_1u
SYMATTR Value2 l=5u w=10u m=2
SYMBOL pmos4 528 112 R0
SYMATTR InstName M6
SYMATTR Value P_1u
SYMATTR Value2 l=5u w=15u
SYMBOL nmos4 528 464 R0
SYMATTR InstName M7
SYMATTR Value N_1u
SYMATTR Value2 l=5u w=10u
SYMBOL nmos4 -160 464 M0
SYMATTR InstName M8
SYMATTR Value N_1u
SYMATTR Value2 l=5u w=10u
SYMBOL cap 480 400 R0
SYMATTR InstName C1
SYMATTR Value 0.5p
SYMBOL cap 720 464 R0
SYMATTR InstName C2
SYMATTR Value 0.5p
SYMBOL current -208 160 R0
SYMATTR InstName I1
SYMATTR Value 10µ
SYMBOL TCLib\\Special\\bypass 496 560 R270
SYMATTR InstName U2
SYMBOL voltage -384 304 R0
WINDOW 123 0 0 Left 0
WINDOW 39 0 0 Left 0
SYMATTR InstName V1
SYMATTR Value 5
SYMBOL voltage 896 368 R0
WINDOW 123 0 0 Left 0
WINDOW 39 0 0 Left 0
SYMATTR InstName V2
SYMATTR Value 2.5
SYMBOL current -176 1024 M180
WINDOW 0 15 0 Invisible 2
WINDOW 3 24 0 Invisible 2
SYMATTR InstName I2
SYMATTR Value ""
SYMATTR Value2 AC {u(P)}
SYMBOL voltage -64 928 M90
WINDOW 0 27 17 VTop 2
WINDOW 3 -32 56 VBottom 2
SYMATTR InstName Vp
SYMATTR Value ""
SYMATTR Value2 AC {u(-P)}
SYMBOL res 800 128 R270
WINDOW 0 27 56 VTop 2
WINDOW 3 3 56 VBottom 2
SYMATTR InstName Rnull
SYMATTR Value 23k31
SYMBOL cap 960 128 R270
WINDOW 0 32 32 VTop 2
WINDOW 3 0 32 VBottom 2
SYMATTR InstName Cm
SYMATTR Value 5p5
SYMBOL voltage 1104 288 R0
WINDOW 123 0 0 Left 0
WINDOW 39 0 0 Left 0
SYMATTR InstName V3
SYMATTR Value PULSE(0 1 0 1n 1n 1m 2m)
TEXT -208 664 Left 2 !.include models.txt
TEXT -208 640 Left 2 !.tran 0 5m 0
TEXT -208 696 Left 2 ;.op
TEXT -192 736 Left 2 !.options logopinfo
TEXT -224 792 Left 2 ;.ac dec 1000 0.1 1000meg
TEXT 144 1400 Left 2 ;1/(1-1/(2*(I(Vp)@1*V(Vi-)@2-V(Vi-)@1*I(Vp)@2)+V(Vi-)@1+I(Vp)@2))
TEXT 8 1208 Left 2 ;.step param P list -1 1
TEXT 8 1280 Left 2 !.param P=0
TEXT -56 1008 Left 2 ;Nombrar como "Vp"
TEXT -312 1376 Left 2 ;Ganancia de lazo T=-A.B\nGraficar                                     ---->
TEXT -312 1280 Left 2 ;Para Desactivar ------>
TEXT -312 1208 Left 2 ;Para Activar ------>
TEXT -336 1128 Left 2 ;Conectar este bloque dentro del lazo de realimentación
TEXT 400 1200 Left 2 ;Si
TEXT 600 1200 Left 2 ;So
TEXT 456 1240 Left 2 ;-
TEXT 520 1216 Left 2 ;A
TEXT 520 1264 Left 2 ;B
TEXT 760 1240 Left 2 ;-
TEXT 888 1216 Left 2 ;A
TEXT 888 1296 Left 2 ;B
TEXT 736 1264 Left 2 ;Vp
TEXT 808 1296 Left 2 ;T.Vp
LINE Normal 512 1216 464 1216 2
LINE Normal 448 1264 448 1232 2
LINE Normal 512 1264 448 1264 2
LINE Normal 608 1216 544 1216 2
LINE Normal 592 1264 544 1264 2
LINE Normal 592 1216 592 1264 2
LINE Normal 400 1216 432 1216 2
LINE Normal 880 1216 768 1216 2
LINE Normal 752 1248 752 1232 2
LINE Normal 944 1216 912 1216 2
LINE Normal 928 1296 912 1296 2
LINE Normal 928 1216 928 1296 2
LINE Normal 752 1248 752 1248 2
LINE Normal 864 1296 880 1296 2
LINE Normal 448 976 448 896 2
LINE Normal 496 976 448 976 2
LINE Normal 496 960 496 976 2
LINE Normal 464 960 496 960 2
LINE Normal 464 896 464 960 2
LINE Normal 448 896 464 896 2
LINE Normal 512 912 512 944 2
LINE Normal 528 896 512 912 2
LINE Normal 560 896 528 896 2
LINE Normal 576 912 560 896 2
LINE Normal 576 960 576 912 2
LINE Normal 560 976 576 960 2
LINE Normal 528 976 560 976 2
LINE Normal 512 960 528 976 2
LINE Normal 512 944 512 960 2
LINE Normal 544 912 528 928 2
LINE Normal 672 976 672 896 2
LINE Normal 688 896 672 896 2
LINE Normal 704 896 688 896 2
LINE Normal 720 912 704 896 2
LINE Normal 720 928 720 912 2
LINE Normal 704 944 720 928 2
LINE Normal 688 944 704 944 2
LINE Normal 688 976 688 944 2
LINE Normal 672 976 688 976 2
LINE Normal 688 928 688 912 2
LINE Normal 704 928 688 928 2
LINE Normal 704 912 704 928 2
LINE Normal 688 912 704 912 2
LINE Normal 496 992 448 992 2
LINE Normal 496 1008 496 992 2
LINE Normal 464 1008 496 1008 2
LINE Normal 464 1056 464 1008 2
LINE Normal 480 1056 464 1056 2
LINE Normal 480 1040 480 1056 2
LINE Normal 496 1040 480 1040 2
LINE Normal 496 1072 496 1040 2
LINE Normal 448 1072 496 1072 2
LINE Normal 448 992 448 1072 2
LINE Normal 512 1056 512 1072 2
LINE Normal 528 992 512 1056 2
LINE Normal 560 992 528 992 2
LINE Normal 576 1056 560 992 2
LINE Normal 576 1072 576 1056 2
LINE Normal 560 1072 576 1072 2
LINE Normal 560 1056 560 1072 2
LINE Normal 528 1056 560 1056 2
LINE Normal 528 1072 528 1056 2
LINE Normal 512 1072 528 1072 2
LINE Normal 560 1040 544 1008 2
LINE Normal 528 1040 560 1040 2
LINE Normal 544 1008 528 1040 2
LINE Normal 592 1072 592 992 2
LINE Normal 608 1072 592 1072 2
LINE Normal 608 992 608 1072 2
LINE Normal 592 992 608 992 2
LINE Normal 624 1072 624 992 2
LINE Normal 640 992 624 992 2
LINE Normal 640 1072 624 1072 2
LINE Normal 640 1040 640 1072 2
LINE Normal 672 992 672 1072 2
LINE Normal 656 992 672 992 2
LINE Normal 656 1024 656 992 2
LINE Normal 640 992 656 1024 2
LINE Normal 656 1072 640 1040 2
LINE Normal 672 1072 656 1072 2
LINE Normal 688 1072 688 1008 2
LINE Normal 736 1072 688 1072 2
LINE Normal 736 1056 736 1072 2
LINE Normal 704 1056 736 1056 2
LINE Normal 704 1040 704 1056 2
LINE Normal 720 1040 704 1040 2
LINE Normal 720 1024 720 1040 2
LINE Normal 704 1024 720 1024 2
LINE Normal 704 1008 704 1024 2
LINE Normal 736 1008 704 1008 2
LINE Normal 736 992 736 1008 2
LINE Normal 688 992 736 992 2
LINE Normal 688 1008 688 992 2
LINE Normal 752 1072 752 992 2
LINE Normal 768 992 752 992 2
LINE Normal 784 992 768 992 2
LINE Normal 800 1008 784 992 2
LINE Normal 800 1024 800 1008 2
LINE Normal 784 1040 800 1024 2
LINE Normal 800 1072 784 1040 2
LINE Normal 784 1072 800 1072 2
LINE Normal 768 1040 784 1072 2
LINE Normal 768 1072 768 1040 2
LINE Normal 752 1072 768 1072 2
LINE Normal 768 1024 768 1008 2
LINE Normal 784 1024 768 1024 2
LINE Normal 784 1008 784 1024 2
LINE Normal 768 1008 784 1008 2
LINE Normal 560 928 544 912 2
LINE Normal 560 944 560 928 2
LINE Normal 544 960 560 944 2
LINE Normal 528 944 544 960 2
LINE Normal 528 928 528 944 2
LINE Normal 592 912 592 944 2
LINE Normal 608 896 592 912 2
LINE Normal 640 896 608 896 2
LINE Normal 656 912 640 896 2
LINE Normal 656 960 656 912 2
LINE Normal 640 976 656 960 2
LINE Normal 608 976 640 976 2
LINE Normal 592 960 608 976 2
LINE Normal 592 944 592 960 2
LINE Normal 624 912 608 928 2
LINE Normal 640 928 624 912 2
LINE Normal 640 944 640 928 2
LINE Normal 624 960 640 944 2
LINE Normal 608 944 624 960 2
LINE Normal 608 928 608 944 2
RECTANGLE Normal 336 1312 -336 1184 2
RECTANGLE Normal 1088 1440 -336 1344 2
RECTANGLE Normal 544 1232 512 1200 2
RECTANGLE Normal 544 1280 512 1248 2
RECTANGLE Normal 912 1232 880 1200 2
RECTANGLE Normal 912 1312 880 1280 2
CIRCLE Normal 464 1232 432 1200 2
CIRCLE Normal 768 1232 736 1200 2
